<?xml version="1.0" encoding="UTF-8"?>

<!-- generated on 2024-12-02 11:24:50 by Eclipse SUMO netconvert Version 1.19.0
<configuration xmlns:xsi="http://www.w3.org/2001/XMLSchema-instance" xsi:noNamespaceSchemaLocation="http://sumo.dlr.de/xsd/netconvertConfiguration.xsd">

    <input>
        <node-files value="righthand.nod.xml"/>
        <edge-files value="righthand.edg.xml"/>
    </input>

    <output>
        <output-file value="inter.net.xml"/>
    </output>

    <processing>
        <lefthand value="true"/>
    </processing>

</configuration>
-->

<net version="1.16" junctionCornerDetail="5" lefthand="true" limitTurnSpeed="5.50" xmlns:xsi="http://www.w3.org/2001/XMLSchema-instance" xsi:noNamespaceSchemaLocation="http://sumo.dlr.de/xsd/net_file.xsd">

    <location netOffset="0.00,200.00" convBoundary="0.00,-0.00,200.00,200.00" origBoundary="0.00,0.00,200.00,200.00" projParameter="!"/>

    <edge id=":A1_0" function="internal">
        <lane id=":A1_0_0" index="0" speed="3.65" length="4.67" shape="0.00,98.40 -1.20,99.20 -1.60,100.00 -1.20,100.80 0.00,101.60"/>
    </edge>
    <edge id=":B0_0" function="internal">
        <lane id=":B0_0_0" index="0" speed="3.65" length="4.67" shape="98.40,200.00 99.20,201.20 100.00,201.60 100.80,201.20 101.60,200.00"/>
    </edge>
    <edge id=":B1_0" function="internal">
        <lane id=":B1_0_0" index="0" speed="6.51" length="9.03" shape="92.00,89.60 91.65,92.05 90.60,93.80 88.85,94.85 86.40,95.20"/>
    </edge>
    <edge id=":B1_1" function="internal">
        <lane id=":B1_1_0" index="0" speed="13.89" length="20.80" shape="92.00,89.60 92.00,110.40"/>
        <lane id=":B1_1_1" index="1" speed="13.89" length="20.80" shape="95.20,89.60 95.20,110.40"/>
        <lane id=":B1_1_2" index="2" speed="13.89" length="20.80" shape="98.40,89.60 98.40,110.40"/>
    </edge>
    <edge id=":B1_4" function="internal">
        <lane id=":B1_4_0" index="0" speed="9.84" length="4.01" shape="98.40,89.60 99.11,93.55"/>
    </edge>
    <edge id=":B1_5" function="internal">
        <lane id=":B1_5_0" index="0" speed="3.65" length="1.44" shape="98.40,89.60 99.20,90.80"/>
    </edge>
    <edge id=":B1_22" function="internal">
        <lane id=":B1_22_0" index="0" speed="9.84" length="17.98" shape="99.11,93.55 99.35,94.85 102.20,98.60 106.95,100.85 113.60,101.60"/>
    </edge>
    <edge id=":B1_23" function="internal">
        <lane id=":B1_23_0" index="0" speed="3.65" length="3.23" shape="99.20,90.80 100.00,91.20 100.80,90.80 101.60,89.60"/>
    </edge>
    <edge id=":B1_6" function="internal">
        <lane id=":B1_6_0" index="0" speed="6.51" length="9.03" shape="113.60,95.20 111.15,94.85 109.40,93.80 108.35,92.05 108.00,89.60"/>
    </edge>
    <edge id=":B1_7" function="internal">
        <lane id=":B1_7_0" index="0" speed="13.89" length="27.20" shape="113.60,95.20 86.40,95.20"/>
        <lane id=":B1_7_1" index="1" speed="13.89" length="27.20" shape="113.60,98.40 86.40,98.40"/>
    </edge>
    <edge id=":B1_9" function="internal">
        <lane id=":B1_9_0" index="0" speed="9.84" length="6.30" shape="113.60,98.40 107.34,99.11"/>
    </edge>
    <edge id=":B1_10" function="internal">
        <lane id=":B1_10_0" index="0" speed="3.65" length="1.44" shape="113.60,98.40 112.40,99.20"/>
    </edge>
    <edge id=":B1_24" function="internal">
        <lane id=":B1_24_0" index="0" speed="9.84" length="15.70" shape="107.34,99.11 106.95,99.15 102.20,101.40 99.35,105.15 98.40,110.40"/>
    </edge>
    <edge id=":B1_25" function="internal">
        <lane id=":B1_25_0" index="0" speed="3.65" length="3.23" shape="112.40,99.20 112.00,100.00 112.40,100.80 113.60,101.60"/>
    </edge>
    <edge id=":B1_11" function="internal">
        <lane id=":B1_11_0" index="0" speed="6.51" length="9.03" shape="108.00,110.40 108.35,107.95 109.40,106.20 111.15,105.15 113.60,104.80"/>
    </edge>
    <edge id=":B1_12" function="internal">
        <lane id=":B1_12_0" index="0" speed="13.89" length="20.80" shape="108.00,110.40 108.00,89.60"/>
        <lane id=":B1_12_1" index="1" speed="13.89" length="20.80" shape="104.80,110.40 104.80,89.60"/>
        <lane id=":B1_12_2" index="2" speed="13.89" length="20.80" shape="101.60,110.40 101.60,89.60"/>
    </edge>
    <edge id=":B1_15" function="internal">
        <lane id=":B1_15_0" index="0" speed="9.84" length="4.01" shape="101.60,110.40 100.89,106.45"/>
    </edge>
    <edge id=":B1_16" function="internal">
        <lane id=":B1_16_0" index="0" speed="3.65" length="1.44" shape="101.60,110.40 100.80,109.20"/>
    </edge>
    <edge id=":B1_26" function="internal">
        <lane id=":B1_26_0" index="0" speed="9.84" length="17.98" shape="100.89,106.45 100.65,105.15 97.80,101.40 93.05,99.15 86.40,98.40"/>
    </edge>
    <edge id=":B1_27" function="internal">
        <lane id=":B1_27_0" index="0" speed="3.65" length="3.23" shape="100.80,109.20 100.00,108.80 99.20,109.20 98.40,110.40"/>
    </edge>
    <edge id=":B1_17" function="internal">
        <lane id=":B1_17_0" index="0" speed="6.51" length="9.03" shape="86.40,104.80 88.85,105.15 90.60,106.20 91.65,107.95 92.00,110.40"/>
    </edge>
    <edge id=":B1_18" function="internal">
        <lane id=":B1_18_0" index="0" speed="13.89" length="27.20" shape="86.40,104.80 113.60,104.80"/>
        <lane id=":B1_18_1" index="1" speed="13.89" length="27.20" shape="86.40,101.60 113.60,101.60"/>
    </edge>
    <edge id=":B1_20" function="internal">
        <lane id=":B1_20_0" index="0" speed="9.84" length="6.30" shape="86.40,101.60 92.66,100.89"/>
    </edge>
    <edge id=":B1_21" function="internal">
        <lane id=":B1_21_0" index="0" speed="3.65" length="1.44" shape="86.40,101.60 87.60,100.80"/>
    </edge>
    <edge id=":B1_28" function="internal">
        <lane id=":B1_28_0" index="0" speed="9.84" length="15.70" shape="92.66,100.89 93.05,100.85 97.80,98.60 100.65,94.85 101.60,89.60"/>
    </edge>
    <edge id=":B1_29" function="internal">
        <lane id=":B1_29_0" index="0" speed="3.65" length="3.23" shape="87.60,100.80 88.00,100.00 87.60,99.20 86.40,98.40"/>
    </edge>
    <edge id=":B2_0" function="internal">
        <lane id=":B2_0_0" index="0" speed="3.65" length="4.67" shape="101.60,-0.00 100.80,-1.20 100.00,-1.60 99.20,-1.20 98.40,-0.00"/>
    </edge>
    <edge id=":C1_0" function="internal">
        <lane id=":C1_0_0" index="0" speed="3.65" length="4.67" shape="200.00,101.60 201.20,100.80 201.60,100.00 201.20,99.20 200.00,98.40"/>
    </edge>

    <edge id="A1B1" from="A1" to="B1" priority="-1" length="200.00">
        <lane id="A1B1_0" index="0" speed="13.89" length="200.00" shape="0.00,104.80 86.40,104.80"/>
        <lane id="A1B1_1" index="1" speed="13.89" length="200.00" shape="0.00,101.60 86.40,101.60"/>
    </edge>
    <edge id="B0B1" from="B0" to="B1" priority="-1" length="200.00">
        <lane id="B0B1_0" index="0" speed="13.89" length="200.00" shape="108.00,200.00 108.00,110.40"/>
        <lane id="B0B1_1" index="1" speed="13.89" length="200.00" shape="104.80,200.00 104.80,110.40"/>
        <lane id="B0B1_2" index="2" speed="13.89" length="200.00" shape="101.60,200.00 101.60,110.40"/>
    </edge>
    <edge id="B1A1" from="B1" to="A1" priority="-1" length="200.00">
        <lane id="B1A1_0" index="0" speed="13.89" length="200.00" shape="86.40,95.20 0.00,95.20"/>
        <lane id="B1A1_1" index="1" speed="13.89" length="200.00" shape="86.40,98.40 0.00,98.40"/>
    </edge>
    <edge id="B1B0" from="B1" to="B0" priority="-1" length="200.00">
        <lane id="B1B0_0" index="0" speed="13.89" length="200.00" shape="92.00,110.40 92.00,200.00"/>
        <lane id="B1B0_1" index="1" speed="13.89" length="200.00" shape="95.20,110.40 95.20,200.00"/>
        <lane id="B1B0_2" index="2" speed="13.89" length="200.00" shape="98.40,110.40 98.40,200.00"/>
    </edge>
    <edge id="B1B2" from="B1" to="B2" priority="-1" length="200.00">
        <lane id="B1B2_0" index="0" speed="13.89" length="200.00" shape="108.00,89.60 108.00,-0.00"/>
        <lane id="B1B2_1" index="1" speed="13.89" length="200.00" shape="104.80,89.60 104.80,-0.00"/>
        <lane id="B1B2_2" index="2" speed="13.89" length="200.00" shape="101.60,89.60 101.60,-0.00"/>
    </edge>
    <edge id="B1C1" from="B1" to="C1" priority="-1" length="200.00">
        <lane id="B1C1_0" index="0" speed="13.89" length="200.00" shape="113.60,104.80 200.00,104.80"/>
        <lane id="B1C1_1" index="1" speed="13.89" length="200.00" shape="113.60,101.60 200.00,101.60"/>
    </edge>
    <edge id="B2B1" from="B2" to="B1" priority="-1" length="200.00">
        <lane id="B2B1_0" index="0" speed="13.89" length="200.00" shape="92.00,-0.00 92.00,89.60"/>
        <lane id="B2B1_1" index="1" speed="13.89" length="200.00" shape="95.20,-0.00 95.20,89.60"/>
        <lane id="B2B1_2" index="2" speed="13.89" length="200.00" shape="98.40,-0.00 98.40,89.60"/>
    </edge>
    <edge id="C1B1" from="C1" to="B1" priority="-1" length="200.00">
        <lane id="C1B1_0" index="0" speed="13.89" length="200.00" shape="200.00,95.20 113.60,95.20"/>
        <lane id="C1B1_1" index="1" speed="13.89" length="200.00" shape="200.00,98.40 113.60,98.40"/>
    </edge>

    <tlLogic id="B1" type="static" programID="0" offset="0">
        <phase duration="42" state="GGGGggrrrrrGGGGggrrrrr"/>
        <phase duration="3"  state="yyyyyyrrrrryyyyyyrrrrr"/>
        <phase duration="42" state="rrrrrrGGGggrrrrrrGGGgg"/>
        <phase duration="3"  state="rrrrrryyyyyrrrrrryyyyy"/>
    </tlLogic>

    <junction id="A1" type="priority" x="0.00" y="100.00" incLanes="B1A1_0 B1A1_1" intLanes=":A1_0_0" shape="0.00,100.00 0.00,93.60 0.00,100.00">
        <request index="0" response="0" foes="0" cont="0"/>
    </junction>
    <junction id="B0" type="priority" x="100.00" y="200.00" incLanes="B1B0_0 B1B0_1 B1B0_2" intLanes=":B0_0_0" shape="100.00,200.00 90.40,200.00 100.00,200.00">
        <request index="0" response="0" foes="0" cont="0"/>
    </junction>
    <junction id="B1" type="traffic_light" x="100.00" y="100.00" incLanes="B2B1_0 B2B1_1 B2B1_2 C1B1_0 C1B1_1 B0B1_0 B0B1_1 B0B1_2 A1B1_0 A1B1_1" intLanes=":B1_0_0 :B1_1_0 :B1_1_1 :B1_1_2 :B1_22_0 :B1_23_0 :B1_6_0 :B1_7_0 :B1_7_1 :B1_24_0 :B1_25_0 :B1_11_0 :B1_12_0 :B1_12_1 :B1_12_2 :B1_26_0 :B1_27_0 :B1_17_0 :B1_18_0 :B1_18_1 :B1_28_0 :B1_29_0" shape="90.40,89.60 109.60,89.60 110.04,91.82 110.60,92.60 111.38,93.16 112.38,93.49 113.60,93.60 113.60,106.40 111.38,106.84 110.60,107.40 110.04,108.18 109.71,109.18 109.60,110.40 90.40,110.40 89.96,108.18 89.40,107.40 88.62,106.84 87.62,106.51 86.40,106.40 86.40,93.60 88.62,93.16 89.40,92.60 89.96,91.82 90.29,90.82">
        <request index="0"  response="0000000000000000000000" foes="0000000000000110000000" cont="0"/>
        <request index="1"  response="0100000000001000000000" foes="0111111000001110000000" cont="0"/>
        <request index="2"  response="0100000000001000000000" foes="0111111000001110000000" cont="0"/>
        <request index="3"  response="0100000000001000000000" foes="0111111000001110000000" cont="0"/>
        <request index="4"  response="0100000111001000000000" foes="0111000111011110000000" cont="1"/>
        <request index="5"  response="0100000111000000000000" foes="0100000111000000000000" cont="1"/>
        <request index="6"  response="0000000111000000000000" foes="0000000111000000000000" cont="0"/>
        <request index="7"  response="0000001111000000011111" foes="1100001111000000011111" cont="0"/>
        <request index="8"  response="0000001111000000011111" foes="1100001111000000011111" cont="0"/>
        <request index="9"  response="0011001111000000011110" foes="0011011111000000011110" cont="1"/>
        <request index="10" response="0011000000000000010000" foes="0011000000000000010000" cont="1"/>
        <request index="11" response="0000000000000000000000" foes="0011000000000000000000" cont="0"/>
        <request index="12" response="0100000000001000000000" foes="0111000000001111110000" cont="0"/>
        <request index="13" response="0100000000001000000000" foes="0111000000001111110000" cont="0"/>
        <request index="14" response="0100000000001000000000" foes="0111000000001111110000" cont="0"/>
        <request index="15" response="0100000000001000001110" foes="1111000000001110001110" cont="1"/>
        <request index="16" response="0000000000001000001110" foes="0000000000001000001110" cont="1"/>
        <request index="17" response="0000000000000000001110" foes="0000000000000000001110" cont="0"/>
        <request index="18" response="0000001111100000011110" foes="0000001111111000011110" cont="0"/>
        <request index="19" response="0000001111100000011110" foes="0000001111111000011110" cont="0"/>
        <request index="20" response="0000001111000110011110" foes="0000001111000110111110" cont="1"/>
        <request index="21" response="0000001000000110000000" foes="0000001000000110000000" cont="1"/>
    </junction>
    <junction id="B2" type="priority" x="100.00" y="-0.00" incLanes="B1B2_0 B1B2_1 B1B2_2" intLanes=":B2_0_0" shape="100.00,-0.00 109.60,-0.00 100.00,-0.00">
        <request index="0" response="0" foes="0" cont="0"/>
    </junction>
    <junction id="C1" type="priority" x="200.00" y="100.00" incLanes="B1C1_0 B1C1_1" intLanes=":C1_0_0" shape="200.00,100.00 200.00,106.40 200.00,100.00">
        <request index="0" response="0" foes="0" cont="0"/>
    </junction>

    <junction id=":B1_22_0" type="internal" x="99.11" y="93.55" incLanes=":B1_4_0 B0B1_0 B0B1_1 B0B1_2" intLanes=":B1_7_0 :B1_7_1 :B1_9_0 :B1_10_0 :B1_11_0 :B1_12_0 :B1_12_1 :B1_12_2 :B1_18_0 :B1_18_1 :B1_20_0"/>
    <junction id=":B1_23_0" type="internal" x="99.20" y="90.80" incLanes=":B1_5_0 A1B1_1 B0B1_0 B0B1_1 B0B1_2 C1B1_0" intLanes=":B1_6_0 :B1_12_0 :B1_12_1 :B1_12_2 :B1_20_0"/>
    <junction id=":B1_24_0" type="internal" x="107.34" y="99.11" incLanes=":B1_9_0 A1B1_0 A1B1_1" intLanes=":B1_1_0 :B1_1_1 :B1_1_2 :B1_4_0 :B1_12_0 :B1_12_1 :B1_12_2 :B1_15_0 :B1_16_0 :B1_17_0 :B1_18_0 :B1_18_1"/>
    <junction id=":B1_25_0" type="internal" x="112.40" y="99.20" incLanes=":B1_10_0 A1B1_0 A1B1_1 B0B1_0 B2B1_2" intLanes=":B1_4_0 :B1_11_0 :B1_18_0 :B1_18_1"/>
    <junction id=":B1_26_0" type="internal" x="100.89" y="106.45" incLanes=":B1_15_0 B2B1_0 B2B1_1 B2B1_2" intLanes=":B1_0_0 :B1_1_0 :B1_1_1 :B1_1_2 :B1_7_0 :B1_7_1 :B1_9_0 :B1_18_0 :B1_18_1 :B1_20_0 :B1_21_0"/>
    <junction id=":B1_27_0" type="internal" x="100.80" y="109.20" incLanes=":B1_16_0 A1B1_0 B2B1_0 B2B1_1 B2B1_2 C1B1_1" intLanes=":B1_1_0 :B1_1_1 :B1_1_2 :B1_9_0 :B1_17_0"/>
    <junction id=":B1_28_0" type="internal" x="92.66" y="100.89" incLanes=":B1_20_0 C1B1_0 C1B1_1" intLanes=":B1_1_0 :B1_1_1 :B1_1_2 :B1_4_0 :B1_5_0 :B1_6_0 :B1_7_0 :B1_7_1 :B1_12_0 :B1_12_1 :B1_12_2 :B1_15_0"/>
    <junction id=":B1_29_0" type="internal" x="87.60" y="100.80" incLanes=":B1_21_0 B0B1_2 B2B1_0 C1B1_0 C1B1_1" intLanes=":B1_0_0 :B1_7_0 :B1_7_1 :B1_15_0"/>

    <connection from="A1B1" to="B1B0" fromLane="0" toLane="0" via=":B1_17_0" tl="B1" linkIndex="17" dir="l" state="o"/>
    <connection from="A1B1" to="B1C1" fromLane="0" toLane="0" via=":B1_18_0" tl="B1" linkIndex="18" dir="s" state="o"/>
    <connection from="A1B1" to="B1C1" fromLane="1" toLane="1" via=":B1_18_1" tl="B1" linkIndex="19" dir="s" state="o"/>
    <connection from="A1B1" to="B1B2" fromLane="1" toLane="2" via=":B1_20_0" tl="B1" linkIndex="20" dir="r" state="o"/>
    <connection from="A1B1" to="B1A1" fromLane="1" toLane="1" via=":B1_21_0" tl="B1" linkIndex="21" dir="T" state="o"/>
    <connection from="B0B1" to="B1C1" fromLane="0" toLane="0" via=":B1_11_0" tl="B1" linkIndex="11" dir="l" state="O"/>
    <connection from="B0B1" to="B1B2" fromLane="0" toLane="0" via=":B1_12_0" tl="B1" linkIndex="12" dir="s" state="O"/>
    <connection from="B0B1" to="B1B2" fromLane="1" toLane="1" via=":B1_12_1" tl="B1" linkIndex="13" dir="s" state="O"/>
    <connection from="B0B1" to="B1B2" fromLane="2" toLane="2" via=":B1_12_2" tl="B1" linkIndex="14" dir="s" state="O"/>
    <connection from="B0B1" to="B1A1" fromLane="2" toLane="1" via=":B1_15_0" tl="B1" linkIndex="15" dir="r" state="o"/>
    <connection from="B0B1" to="B1B0" fromLane="2" toLane="2" via=":B1_16_0" tl="B1" linkIndex="16" dir="T" state="o"/>
    <connection from="B1A1" to="A1B1" fromLane="1" toLane="1" via=":A1_0_0" dir="T" state="M"/>
    <connection from="B1B0" to="B0B1" fromLane="2" toLane="2" via=":B0_0_0" dir="T" state="M"/>
    <connection from="B1B2" to="B2B1" fromLane="2" toLane="2" via=":B2_0_0" dir="T" state="M"/>
    <connection from="B1C1" to="C1B1" fromLane="1" toLane="1" via=":C1_0_0" dir="T" state="M"/>
    <connection from="B2B1" to="B1A1" fromLane="0" toLane="0" via=":B1_0_0" tl="B1" linkIndex="0" dir="l" state="O"/>
    <connection from="B2B1" to="B1B0" fromLane="0" toLane="0" via=":B1_1_0" tl="B1" linkIndex="1" dir="s" state="O"/>
    <connection from="B2B1" to="B1B0" fromLane="1" toLane="1" via=":B1_1_1" tl="B1" linkIndex="2" dir="s" state="O"/>
    <connection from="B2B1" to="B1B0" fromLane="2" toLane="2" via=":B1_1_2" tl="B1" linkIndex="3" dir="s" state="O"/>
    <connection from="B2B1" to="B1C1" fromLane="2" toLane="1" via=":B1_4_0" tl="B1" linkIndex="4" dir="r" state="o"/>
    <connection from="B2B1" to="B1B2" fromLane="2" toLane="2" via=":B1_5_0" tl="B1" linkIndex="5" dir="T" state="o"/>
    <connection from="C1B1" to="B1B2" fromLane="0" toLane="0" via=":B1_6_0" tl="B1" linkIndex="6" dir="l" state="o"/>
    <connection from="C1B1" to="B1A1" fromLane="0" toLane="0" via=":B1_7_0" tl="B1" linkIndex="7" dir="s" state="o"/>
    <connection from="C1B1" to="B1A1" fromLane="1" toLane="1" via=":B1_7_1" tl="B1" linkIndex="8" dir="s" state="o"/>
    <connection from="C1B1" to="B1B0" fromLane="1" toLane="2" via=":B1_9_0" tl="B1" linkIndex="9" dir="r" state="o"/>
    <connection from="C1B1" to="B1C1" fromLane="1" toLane="1" via=":B1_10_0" tl="B1" linkIndex="10" dir="T" state="o"/>

    <connection from=":A1_0" to="A1B1" fromLane="0" toLane="1" dir="T" state="M"/>
    <connection from=":B0_0" to="B0B1" fromLane="0" toLane="2" dir="T" state="M"/>
    <connection from=":B1_0" to="B1A1" fromLane="0" toLane="0" dir="l" state="M"/>
    <connection from=":B1_1" to="B1B0" fromLane="0" toLane="0" dir="s" state="M"/>
    <connection from=":B1_1" to="B1B0" fromLane="1" toLane="1" dir="s" state="M"/>
    <connection from=":B1_1" to="B1B0" fromLane="2" toLane="2" dir="s" state="M"/>
    <connection from=":B1_4" to="B1C1" fromLane="0" toLane="1" via=":B1_22_0" dir="r" state="m"/>
    <connection from=":B1_22" to="B1C1" fromLane="0" toLane="1" dir="r" state="M"/>
    <connection from=":B1_5" to="B1B2" fromLane="0" toLane="2" via=":B1_23_0" dir="T" state="m"/>
    <connection from=":B1_23" to="B1B2" fromLane="0" toLane="2" dir="T" state="M"/>
    <connection from=":B1_6" to="B1B2" fromLane="0" toLane="0" dir="l" state="M"/>
    <connection from=":B1_7" to="B1A1" fromLane="0" toLane="0" dir="s" state="M"/>
    <connection from=":B1_7" to="B1A1" fromLane="1" toLane="1" dir="s" state="M"/>
    <connection from=":B1_9" to="B1B0" fromLane="0" toLane="2" via=":B1_24_0" dir="r" state="m"/>
    <connection from=":B1_24" to="B1B0" fromLane="0" toLane="2" dir="r" state="M"/>
    <connection from=":B1_10" to="B1C1" fromLane="0" toLane="1" via=":B1_25_0" dir="T" state="m"/>
    <connection from=":B1_25" to="B1C1" fromLane="0" toLane="1" dir="T" state="M"/>
    <connection from=":B1_11" to="B1C1" fromLane="0" toLane="0" dir="l" state="M"/>
    <connection from=":B1_12" to="B1B2" fromLane="0" toLane="0" dir="s" state="M"/>
    <connection from=":B1_12" to="B1B2" fromLane="1" toLane="1" dir="s" state="M"/>
    <connection from=":B1_12" to="B1B2" fromLane="2" toLane="2" dir="s" state="M"/>
    <connection from=":B1_15" to="B1A1" fromLane="0" toLane="1" via=":B1_26_0" dir="r" state="m"/>
    <connection from=":B1_26" to="B1A1" fromLane="0" toLane="1" dir="r" state="M"/>
    <connection from=":B1_16" to="B1B0" fromLane="0" toLane="2" via=":B1_27_0" dir="T" state="m"/>
    <connection from=":B1_27" to="B1B0" fromLane="0" toLane="2" dir="T" state="M"/>
    <connection from=":B1_17" to="B1B0" fromLane="0" toLane="0" dir="l" state="M"/>
    <connection from=":B1_18" to="B1C1" fromLane="0" toLane="0" dir="s" state="M"/>
    <connection from=":B1_18" to="B1C1" fromLane="1" toLane="1" dir="s" state="M"/>
    <connection from=":B1_20" to="B1B2" fromLane="0" toLane="2" via=":B1_28_0" dir="r" state="m"/>
    <connection from=":B1_28" to="B1B2" fromLane="0" toLane="2" dir="r" state="M"/>
    <connection from=":B1_21" to="B1A1" fromLane="0" toLane="1" via=":B1_29_0" dir="T" state="m"/>
    <connection from=":B1_29" to="B1A1" fromLane="0" toLane="1" dir="T" state="M"/>
    <connection from=":B2_0" to="B2B1" fromLane="0" toLane="2" dir="T" state="M"/>
    <connection from=":C1_0" to="C1B1" fromLane="0" toLane="1" dir="T" state="M"/>

</net>
