<?xml version="1.0" encoding="UTF-8"?>

<!-- generated on 2024-12-01 22:38:16.668593 by randomTrips.py v1_19_0+0000-baa66a0f364
  options: -n inter.net.xml -e 1700 -o inter.trips.xml
-->

<routes xmlns:xsi="http://www.w3.org/2001/XMLSchema-instance" xsi:noNamespaceSchemaLocation="http://sumo.dlr.de/xsd/routes_file.xsd">
    <trip id="40021" depart="0.14" from="B2B1" to="B1B0"/>
<trip id="40026" depart="0.22" from="B2B1" to="B1B0"/>
<trip id="30016" depart="0.55" from="B0B1" to="B1B2"/>
<trip id="30007" depart="0.73" from="B0B1" to="B1B2"/>
<trip id="40028" depart="0.92" from="B2B1" to="B1C1"/>
<trip id="10004" depart="1.14" from="A1B1" to="B1C1"/>
<trip id="40032" depart="1.35" from="B2B1" to="B1B0"/>
<trip id="30021" depart="1.44" from="B0B1" to="B1A1"/>
<trip id="40007" depart="1.60" from="B2B1" to="B1C1"/>
<trip id="30011" depart="1.62" from="B0B1" to="B1A1"/>
<trip id="40018" depart="1.81" from="B2B1" to="B1B0"/>
<trip id="40011" depart="1.89" from="B2B1" to="B1C1"/>
<trip id="40024" depart="2.16" from="B2B1" to="B1B0"/>
<trip id="10003" depart="3.77" from="A1B1" to="B1C1"/>
<trip id="30026" depart="3.81" from="B0B1" to="B1C1"/>
<trip id="30004" depart="3.98" from="B0B1" to="B1C1"/>
<trip id="40030" depart="4.68" from="B2B1" to="B1B0"/>
<trip id="10007" depart="5.19" from="A1B1" to="B1B0"/>
<trip id="40015" depart="5.20" from="B2B1" to="B1B0"/>
<trip id="10002" depart="5.33" from="A1B1" to="B1C1"/>
<trip id="40023" depart="5.58" from="B2B1" to="B1B0"/>
<trip id="20001" depart="5.72" from="C1B1" to="B1A1"/>
<trip id="30024" depart="5.73" from="B0B1" to="B1B2"/>
<trip id="10006" depart="5.86" from="A1B1" to="B1C1"/>
<trip id="30008" depart="5.99" from="B0B1" to="B1B2"/>
<trip id="30020" depart="6.15" from="B0B1" to="B1B2"/>
<trip id="30009" depart="6.35" from="B0B1" to="B1B2"/>
<trip id="30027" depart="6.77" from="B0B1" to="B1C1"/>
<trip id="40027" depart="6.85" from="B2B1" to="B1B0"/>
<trip id="30015" depart="7.25" from="B0B1" to="B1B2"/>
<trip id="40008" depart="7.48" from="B2B1" to="B1B0"/>
<trip id="30025" depart="7.65" from="B0B1" to="B1A1"/>
<trip id="30005" depart="7.80" from="B0B1" to="B1A1"/>
<trip id="40014" depart="8.54" from="B2B1" to="B1B0"/>
<trip id="40019" depart="8.75" from="B2B1" to="B1B0"/>
<trip id="40013" depart="8.79" from="B2B1" to="B1B0"/>
<trip id="10009" depart="8.80" from="A1B1" to="B1C1"/>
<trip id="40005" depart="8.90" from="B2B1" to="B1B0"/>
<trip id="40033" depart="8.91" from="B2B1" to="B1B0"/>
<trip id="40004" depart="9.20" from="B2B1" to="B1A1"/>
<trip id="40009" depart="9.38" from="B2B1" to="B1B0"/>
<trip id="40016" depart="9.48" from="B2B1" to="B1B0"/>
<trip id="10008" depart="9.57" from="A1B1" to="B1B0"/>
<trip id="40017" depart="9.60" from="B2B1" to="B1B0"/>
<trip id="40025" depart="9.94" from="B2B1" to="B1B0"/>
<trip id="30006" depart="10.39" from="B0B1" to="B1B2"/>
<trip id="40031" depart="10.44" from="B2B1" to="B1C1"/>
<trip id="40003" depart="10.61" from="B2B1" to="B1C1"/>
<trip id="30002" depart="10.68" from="B0B1" to="B1B2"/>
<trip id="30014" depart="10.95" from="B0B1" to="B1B2"/>
<trip id="40012" depart="10.99" from="B2B1" to="B1C1"/>
<trip id="10010" depart="11.12" from="A1B1" to="B1C1"/>
<trip id="30010" depart="11.58" from="B0B1" to="B1B2"/>
<trip id="10005" depart="11.75" from="A1B1" to="B1C1"/>
<trip id="30003" depart="12.11" from="B0B1" to="B1B2"/>
<trip id="30017" depart="12.13" from="B0B1" to="B1A1"/>
<trip id="20002" depart="12.23" from="C1B1" to="B1A1"/>
<trip id="30023" depart="12.37" from="B0B1" to="B1A1"/>
<trip id="40022" depart="12.66" from="B2B1" to="B1B0"/>
<trip id="40006" depart="12.91" from="B2B1" to="B1C1"/>
<trip id="40001" depart="12.95" from="B2B1" to="B1B0"/>
<trip id="30001" depart="13.28" from="B0B1" to="B1B2"/>
<trip id="40020" depart="13.56" from="B2B1" to="B1B0"/>
<trip id="30013" depart="13.71" from="B0B1" to="B1C1"/>
<trip id="30019" depart="14.25" from="B0B1" to="B1B2"/>
<trip id="30022" depart="14.51" from="B0B1" to="B1B2"/>
<trip id="30018" depart="14.52" from="B0B1" to="B1B2"/>
<trip id="40029" depart="14.74" from="B2B1" to="B1A1"/>
<trip id="30012" depart="14.85" from="B0B1" to="B1B2"/>
<trip id="40010" depart="14.89" from="B2B1" to="B1B0"/>
<trip id="40002" depart="15.21" from="B2B1" to="B1B0"/>
<trip id="40040" depart="15.45" from="B2B1" to="B1B0"/>
<trip id="20003" depart="15.47" from="C1B1" to="B1A1"/>
<trip id="40048" depart="15.55" from="B2B1" to="B1B0"/>
<trip id="30030" depart="15.76" from="B0B1" to="B1B2"/>
<trip id="10014" depart="16.27" from="A1B1" to="B1B2"/>
<trip id="40046" depart="16.38" from="B2B1" to="B1C1"/>
<trip id="10017" depart="16.42" from="A1B1" to="B1B0"/>
<trip id="40062" depart="16.46" from="B2B1" to="B1B0"/>
<trip id="40056" depart="16.63" from="B2B1" to="B1B0"/>
<trip id="30043" depart="16.71" from="B0B1" to="B1B2"/>
<trip id="40050" depart="16.72" from="B2B1" to="B1A1"/>
<trip id="40039" depart="16.98" from="B2B1" to="B1B0"/>
<trip id="30038" depart="17.32" from="B0B1" to="B1B2"/>
<trip id="30050" depart="17.57" from="B0B1" to="B1B2"/>
<trip id="10018" depart="17.67" from="A1B1" to="B1B2"/>
<trip id="40036" depart="17.76" from="B2B1" to="B1A1"/>
<trip id="10012" depart="18.14" from="A1B1" to="B1C1"/>
<trip id="30034" depart="18.52" from="B0B1" to="B1B2"/>
<trip id="40047" depart="18.86" from="B2B1" to="B1A1"/>
<trip id="40044" depart="18.91" from="B2B1" to="B1B0"/>
<trip id="10015" depart="19.47" from="A1B1" to="B1C1"/>
<trip id="30036" depart="19.48" from="B0B1" to="B1B2"/>
<trip id="40038" depart="19.51" from="B2B1" to="B1B0"/>
<trip id="40057" depart="19.57" from="B2B1" to="B1B0"/>
<trip id="30049" depart="19.94" from="B0B1" to="B1C1"/>
<trip id="40055" depart="20.22" from="B2B1" to="B1B0"/>
<trip id="40064" depart="20.24" from="B2B1" to="B1A1"/>
<trip id="30046" depart="20.25" from="B0B1" to="B1C1"/>
<trip id="20004" depart="20.57" from="C1B1" to="B1B0"/>
<trip id="40065" depart="20.65" from="B2B1" to="B1A1"/>
<trip id="40035" depart="20.76" from="B2B1" to="B1A1"/>
<trip id="10019" depart="21.33" from="A1B1" to="B1C1"/>
<trip id="30045" depart="21.58" from="B0B1" to="B1B2"/>
<trip id="40059" depart="21.68" from="B2B1" to="B1A1"/>
<trip id="40061" depart="21.68" from="B2B1" to="B1C1"/>
<trip id="40041" depart="22.28" from="B2B1" to="B1A1"/>
<trip id="30037" depart="22.35" from="B0B1" to="B1B2"/>
<trip id="40049" depart="22.44" from="B2B1" to="B1C1"/>
<trip id="40063" depart="22.60" from="B2B1" to="B1C1"/>
<trip id="40058" depart="22.70" from="B2B1" to="B1B0"/>
<trip id="10011" depart="22.78" from="A1B1" to="B1B2"/>
<trip id="40045" depart="23.35" from="B2B1" to="B1B0"/>
<trip id="10013" depart="23.57" from="A1B1" to="B1C1"/>
<trip id="40053" depart="23.64" from="B2B1" to="B1C1"/>
<trip id="30029" depart="23.75" from="B0B1" to="B1C1"/>
<trip id="40052" depart="23.78" from="B2B1" to="B1B0"/>
<trip id="30044" depart="24.70" from="B0B1" to="B1C1"/>
<trip id="40037" depart="25.38" from="B2B1" to="B1A1"/>
<trip id="40054" depart="25.47" from="B2B1" to="B1B0"/>
<trip id="30047" depart="25.61" from="B0B1" to="B1B2"/>
<trip id="30051" depart="25.61" from="B0B1" to="B1B2"/>
<trip id="10016" depart="25.62" from="A1B1" to="B1B0"/>
<trip id="40043" depart="26.47" from="B2B1" to="B1C1"/>
<trip id="40042" depart="26.48" from="B2B1" to="B1B0"/>
<trip id="40051" depart="26.61" from="B2B1" to="B1A1"/>
<trip id="40034" depart="26.64" from="B2B1" to="B1B0"/>
<trip id="40060" depart="26.70" from="B2B1" to="B1A1"/>
<trip id="30031" depart="27.32" from="B0B1" to="B1B2"/>
<trip id="30042" depart="27.73" from="B0B1" to="B1C1"/>
<trip id="30039" depart="27.93" from="B0B1" to="B1C1"/>
<trip id="30033" depart="28.60" from="B0B1" to="B1C1"/>
<trip id="30040" depart="28.65" from="B0B1" to="B1B2"/>
<trip id="30035" depart="29.64" from="B0B1" to="B1B2"/>
<trip id="30032" depart="29.72" from="B0B1" to="B1B2"/>
<trip id="30041" depart="29.79" from="B0B1" to="B1C1"/>
<trip id="30066" depart="30.22" from="B0B1" to="B1B2"/>
<trip id="40089" depart="30.33" from="B2B1" to="B1B0"/>
<trip id="40082" depart="30.41" from="B2B1" to="B1C1"/>
<trip id="40078" depart="30.44" from="B2B1" to="B1C1"/>
<trip id="40069" depart="30.45" from="B2B1" to="B1B0"/>
<trip id="30070" depart="30.53" from="B0B1" to="B1B2"/>
<trip id="30028" depart="30.55" from="B0B1" to="B1C1"/>
<trip id="10020" depart="30.63" from="A1B1" to="B1C1"/>
<trip id="30069" depart="30.79" from="B0B1" to="B1B2"/>
<trip id="30048" depart="30.85" from="B0B1" to="B1B2"/>
<trip id="30064" depart="31.12" from="B0B1" to="B1B2"/>
<trip id="40071" depart="31.48" from="B2B1" to="B1A1"/>
<trip id="30065" depart="31.53" from="B0B1" to="B1B2"/>
<trip id="30071" depart="31.95" from="B0B1" to="B1B2"/>
<trip id="30072" depart="32.14" from="B0B1" to="B1A1"/>
<trip id="30068" depart="32.75" from="B0B1" to="B1A1"/>
<trip id="10026" depart="32.78" from="A1B1" to="B1C1"/>
<trip id="40088" depart="32.81" from="B2B1" to="B1C1"/>
<trip id="40085" depart="32.84" from="B2B1" to="B1B0"/>
<trip id="30053" depart="32.86" from="B0B1" to="B1B2"/>
<trip id="40077" depart="33.30" from="B2B1" to="B1B0"/>
<trip id="40076" depart="33.36" from="B2B1" to="B1B0"/>
<trip id="30055" depart="33.55" from="B0B1" to="B1A1"/>
<trip id="40073" depart="33.59" from="B2B1" to="B1B0"/>
<trip id="40067" depart="33.90" from="B2B1" to="B1B0"/>
<trip id="40072" depart="33.91" from="B2B1" to="B1B0"/>
<trip id="40084" depart="34.39" from="B2B1" to="B1B0"/>
<trip id="30063" depart="34.51" from="B0B1" to="B1B2"/>
<trip id="30052" depart="34.62" from="B0B1" to="B1A1"/>
<trip id="30058" depart="34.67" from="B0B1" to="B1B2"/>
<trip id="40074" depart="34.83" from="B2B1" to="B1B0"/>
<trip id="40081" depart="35.11" from="B2B1" to="B1B0"/>
<trip id="40092" depart="35.20" from="B2B1" to="B1C1"/>
<trip id="40087" depart="35.52" from="B2B1" to="B1B0"/>
<trip id="10027" depart="35.57" from="A1B1" to="B1B0"/>
<trip id="30062" depart="35.69" from="B0B1" to="B1B2"/>
<trip id="20006" depart="35.85" from="C1B1" to="B1A1"/>
<trip id="40091" depart="36.24" from="B2B1" to="B1A1"/>
<trip id="40093" depart="36.36" from="B2B1" to="B1B0"/>
<trip id="10022" depart="36.67" from="A1B1" to="B1B2"/>
<trip id="40079" depart="36.96" from="B2B1" to="B1B0"/>
<trip id="40090" depart="37.16" from="B2B1" to="B1B0"/>
<trip id="40075" depart="37.46" from="B2B1" to="B1B0"/>
<trip id="30054" depart="37.68" from="B0B1" to="B1B2"/>
<trip id="30060" depart="38.36" from="B0B1" to="B1B2"/>
<trip id="30059" depart="39.63" from="B0B1" to="B1A1"/>
<trip id="20005" depart="40.40" from="C1B1" to="B1A1"/>
<trip id="40086" depart="40.49" from="B2B1" to="B1B0"/>
<trip id="30057" depart="40.57" from="B0B1" to="B1B2"/>
<trip id="30067" depart="40.77" from="B0B1" to="B1A1"/>
<trip id="10021" depart="41.66" from="A1B1" to="B1B0"/>
<trip id="10025" depart="41.86" from="A1B1" to="B1B0"/>
<trip id="40068" depart="42.62" from="B2B1" to="B1B0"/>
<trip id="40083" depart="42.93" from="B2B1" to="B1A1"/>
<trip id="10024" depart="43.26" from="A1B1" to="B1B2"/>
<trip id="40066" depart="43.53" from="B2B1" to="B1B0"/>
<trip id="40080" depart="43.61" from="B2B1" to="B1C1"/>
<trip id="30061" depart="44.36" from="B0B1" to="B1B2"/>
<trip id="40070" depart="44.79" from="B2B1" to="B1B0"/>
<trip id="30056" depart="44.84" from="B0B1" to="B1C1"/>
<trip id="30078" depart="45.11" from="B0B1" to="B1A1"/>
<trip id="40106" depart="45.26" from="B2B1" to="B1B0"/>
<trip id="40119" depart="45.28" from="B2B1" to="B1B0"/>
<trip id="30075" depart="45.34" from="B0B1" to="B1A1"/>
<trip id="10023" depart="45.75" from="A1B1" to="B1C1"/>
<trip id="10034" depart="45.91" from="A1B1" to="B1C1"/>
<trip id="40102" depart="45.93" from="B2B1" to="B1A1"/>
<trip id="30074" depart="46.48" from="B0B1" to="B1A1"/>
<trip id="30084" depart="46.65" from="B0B1" to="B1B2"/>
<trip id="30076" depart="46.85" from="B0B1" to="B1C1"/>
<trip id="30079" depart="47.15" from="B0B1" to="B1B2"/>
<trip id="30090" depart="47.25" from="B0B1" to="B1B2"/>
<trip id="10031" depart="47.63" from="A1B1" to="B1C1"/>
<trip id="10035" depart="47.67" from="A1B1" to="B1C1"/>
<trip id="10033" depart="48.30" from="A1B1" to="B1C1"/>
<trip id="10028" depart="48.82" from="A1B1" to="B1C1"/>
<trip id="40107" depart="48.93" from="B2B1" to="B1B0"/>
<trip id="30092" depart="49.78" from="B0B1" to="B1B2"/>
<trip id="30093" depart="49.92" from="B0B1" to="B1C1"/>
<trip id="40121" depart="50.45" from="B2B1" to="B1A1"/>
<trip id="40112" depart="50.49" from="B2B1" to="B1B0"/>
<trip id="30082" depart="50.64" from="B0B1" to="B1A1"/>
<trip id="30085" depart="50.97" from="B0B1" to="B1A1"/>
<trip id="40117" depart="51.27" from="B2B1" to="B1B0"/>
<trip id="30073" depart="51.40" from="B0B1" to="B1A1"/>
<trip id="40122" depart="52.17" from="B2B1" to="B1A1"/>
<trip id="40110" depart="52.33" from="B2B1" to="B1A1"/>
<trip id="30083" depart="52.40" from="B0B1" to="B1A1"/>
<trip id="40116" depart="52.58" from="B2B1" to="B1A1"/>
<trip id="30091" depart="52.64" from="B0B1" to="B1C1"/>
<trip id="30081" depart="53.23" from="B0B1" to="B1A1"/>
<trip id="40109" depart="53.30" from="B2B1" to="B1B0"/>
<trip id="40111" depart="53.71" from="B2B1" to="B1B0"/>
<trip id="30087" depart="53.74" from="B0B1" to="B1A1"/>
<trip id="40105" depart="53.86" from="B2B1" to="B1B0"/>
<trip id="20008" depart="53.96" from="C1B1" to="B1A1"/>
<trip id="40108" depart="54.18" from="B2B1" to="B1B0"/>
<trip id="10032" depart="54.39" from="A1B1" to="B1B2"/>
<trip id="40118" depart="54.65" from="B2B1" to="B1C1"/>
<trip id="10030" depart="54.67" from="A1B1" to="B1C1"/>
<trip id="40114" depart="54.90" from="B2B1" to="B1B0"/>
<trip id="40095" depart="55.19" from="B2B1" to="B1B0"/>
<trip id="40120" depart="55.36" from="B2B1" to="B1C1"/>
<trip id="40113" depart="55.44" from="B2B1" to="B1B0"/>
<trip id="10029" depart="55.87" from="A1B1" to="B1B0"/>
<trip id="30086" depart="55.87" from="B0B1" to="B1B2"/>
<trip id="40096" depart="56.30" from="B2B1" to="B1B0"/>
<trip id="40097" depart="56.37" from="B2B1" to="B1C1"/>
<trip id="30089" depart="56.85" from="B0B1" to="B1C1"/>
<trip id="40104" depart="57.32" from="B2B1" to="B1A1"/>
<trip id="30080" depart="57.83" from="B0B1" to="B1B2"/>
<trip id="40101" depart="59.27" from="B2B1" to="B1A1"/>
<trip id="40094" depart="59.28" from="B2B1" to="B1B0"/>
<trip id="20007" depart="59.32" from="C1B1" to="B1A1"/>
<trip id="40099" depart="59.37" from="B2B1" to="B1B0"/>
<trip id="30077" depart="59.74" from="B0B1" to="B1A1"/>
<trip id="30088" depart="60.18" from="B0B1" to="B1B2"/>
<trip id="40115" depart="60.50" from="B2B1" to="B1B0"/>
<trip id="40123" depart="60.65" from="B2B1" to="B1A1"/>
<trip id="40098" depart="60.70" from="B2B1" to="B1B0"/>
<trip id="40103" depart="60.70" from="B2B1" to="B1B0"/>
<trip id="30103" depart="60.73" from="B0B1" to="B1C1"/>
<trip id="30102" depart="60.82" from="B0B1" to="B1B2"/>
<trip id="40136" depart="60.85" from="B2B1" to="B1C1"/>
<trip id="30109" depart="60.95" from="B0B1" to="B1B2"/>
<trip id="40100" depart="60.98" from="B2B1" to="B1B0"/>
<trip id="30097" depart="61.33" from="B0B1" to="B1A1"/>
<trip id="40134" depart="61.36" from="B2B1" to="B1B0"/>
<trip id="30101" depart="61.38" from="B0B1" to="B1B2"/>
<trip id="10038" depart="61.48" from="A1B1" to="B1B0"/>
<trip id="40141" depart="61.56" from="B2B1" to="B1B0"/>
<trip id="30105" depart="61.96" from="B0B1" to="B1A1"/>
<trip id="40150" depart="62.58" from="B2B1" to="B1B0"/>
<trip id="40144" depart="62.70" from="B2B1" to="B1A1"/>
<trip id="40147" depart="62.72" from="B2B1" to="B1B0"/>
<trip id="10039" depart="62.74" from="A1B1" to="B1C1"/>
<trip id="40138" depart="62.77" from="B2B1" to="B1B0"/>
<trip id="40132" depart="63.16" from="B2B1" to="B1B0"/>
<trip id="40133" depart="63.51" from="B2B1" to="B1A1"/>
<trip id="40149" depart="63.81" from="B2B1" to="B1B0"/>
<trip id="10037" depart="64.63" from="A1B1" to="B1C1"/>
<trip id="40127" depart="66.24" from="B2B1" to="B1B0"/>
<trip id="40146" depart="66.41" from="B2B1" to="B1B0"/>
<trip id="20009" depart="66.93" from="C1B1" to="B1B2"/>
<trip id="30098" depart="67.18" from="B0B1" to="B1A1"/>
<trip id="40137" depart="67.37" from="B2B1" to="B1B0"/>
<trip id="30108" depart="67.51" from="B0B1" to="B1A1"/>
<trip id="40140" depart="67.80" from="B2B1" to="B1B0"/>
<trip id="40124" depart="68.31" from="B2B1" to="B1A1"/>
<trip id="40139" depart="69.28" from="B2B1" to="B1B0"/>
<trip id="40129" depart="69.29" from="B2B1" to="B1B0"/>
<trip id="40125" depart="69.57" from="B2B1" to="B1B0"/>
<trip id="30104" depart="69.82" from="B0B1" to="B1B2"/>
<trip id="40135" depart="70.19" from="B2B1" to="B1B0"/>
<trip id="40130" depart="70.57" from="B2B1" to="B1A1"/>
<trip id="40128" depart="70.74" from="B2B1" to="B1B0"/>
<trip id="40145" depart="71.15" from="B2B1" to="B1B0"/>
<trip id="40148" depart="71.17" from="B2B1" to="B1C1"/>
<trip id="10040" depart="71.28" from="A1B1" to="B1C1"/>
<trip id="30096" depart="71.49" from="B0B1" to="B1B2"/>
<trip id="30107" depart="71.68" from="B0B1" to="B1B2"/>
<trip id="30111" depart="71.70" from="B0B1" to="B1B2"/>
<trip id="20010" depart="71.81" from="C1B1" to="B1A1"/>
<trip id="30095" depart="71.91" from="B0B1" to="B1B2"/>
<trip id="40131" depart="72.24" from="B2B1" to="B1C1"/>
<trip id="30100" depart="72.38" from="B0B1" to="B1A1"/>
<trip id="30110" depart="72.49" from="B0B1" to="B1B2"/>
<trip id="10041" depart="72.68" from="A1B1" to="B1B0"/>
<trip id="30099" depart="73.61" from="B0B1" to="B1B2"/>
<trip id="10036" depart="73.66" from="A1B1" to="B1B2"/>
<trip id="30106" depart="73.69" from="B0B1" to="B1C1"/>
<trip id="40143" depart="73.78" from="B2B1" to="B1A1"/>
<trip id="30094" depart="74.25" from="B0B1" to="B1B2"/>
<trip id="40126" depart="74.63" from="B2B1" to="B1A1"/>
<trip id="40142" depart="75.45" from="B2B1" to="B1B0"/>
<trip id="10043" depart="75.76" from="A1B1" to="B1C1"/>
<trip id="10042" depart="75.81" from="A1B1" to="B1B2"/>
<trip id="30122" depart="75.88" from="B0B1" to="B1A1"/>
<trip id="40172" depart="75.88" from="B2B1" to="B1B0"/>
<trip id="10047" depart="76.42" from="A1B1" to="B1B2"/>
<trip id="40157" depart="76.78" from="B2B1" to="B1A1"/>
<trip id="20012" depart="76.93" from="C1B1" to="B1A1"/>
<trip id="40160" depart="76.95" from="B2B1" to="B1B0"/>
<trip id="40158" depart="77.81" from="B2B1" to="B1B0"/>
<trip id="30129" depart="78.29" from="B0B1" to="B1B2"/>
<trip id="40159" depart="78.37" from="B2B1" to="B1A1"/>
<trip id="30124" depart="79.51" from="B0B1" to="B1C1"/>
<trip id="10048" depart="80.40" from="A1B1" to="B1B2"/>
<trip id="40173" depart="80.54" from="B2B1" to="B1B0"/>
<trip id="30118" depart="80.86" from="B0B1" to="B1B2"/>
<trip id="40165" depart="80.93" from="B2B1" to="B1B0"/>
<trip id="30123" depart="80.95" from="B0B1" to="B1A1"/>
<trip id="40170" depart="81.41" from="B2B1" to="B1C1"/>
<trip id="10044" depart="81.51" from="A1B1" to="B1C1"/>
<trip id="30114" depart="81.51" from="B0B1" to="B1B2"/>
<trip id="40166" depart="81.53" from="B2B1" to="B1B0"/>
<trip id="40171" depart="81.70" from="B2B1" to="B1B0"/>
<trip id="40152" depart="81.82" from="B2B1" to="B1B0"/>
<trip id="30121" depart="81.93" from="B0B1" to="B1B2"/>
<trip id="20011" depart="81.98" from="C1B1" to="B1A1"/>
<trip id="40153" depart="82.21" from="B2B1" to="B1C1"/>
<trip id="40156" depart="82.28" from="B2B1" to="B1B0"/>
<trip id="30117" depart="82.64" from="B0B1" to="B1C1"/>
<trip id="30120" depart="82.71" from="B0B1" to="B1A1"/>
<trip id="40151" depart="82.84" from="B2B1" to="B1B0"/>
<trip id="30126" depart="83.40" from="B0B1" to="B1B2"/>
<trip id="40169" depart="83.60" from="B2B1" to="B1B0"/>
<trip id="30113" depart="83.85" from="B0B1" to="B1C1"/>
<trip id="10046" depart="84.52" from="A1B1" to="B1C1"/>
<trip id="30127" depart="85.29" from="B0B1" to="B1A1"/>
<trip id="40175" depart="85.58" from="B2B1" to="B1B0"/>
<trip id="40163" depart="85.72" from="B2B1" to="B1C1"/>
<trip id="40154" depart="85.86" from="B2B1" to="B1A1"/>
<trip id="40155" depart="86.42" from="B2B1" to="B1A1"/>
<trip id="40167" depart="87.20" from="B2B1" to="B1C1"/>
<trip id="40168" depart="87.41" from="B2B1" to="B1C1"/>
<trip id="30128" depart="87.72" from="B0B1" to="B1B2"/>
<trip id="30112" depart="88.48" from="B0B1" to="B1B2"/>
<trip id="40164" depart="88.61" from="B2B1" to="B1C1"/>
<trip id="30116" depart="88.72" from="B0B1" to="B1C1"/>
<trip id="10045" depart="88.81" from="A1B1" to="B1C1"/>
<trip id="40174" depart="88.88" from="B2B1" to="B1B0"/>
<trip id="30125" depart="89.23" from="B0B1" to="B1B2"/>
<trip id="40161" depart="89.47" from="B2B1" to="B1B0"/>
<trip id="30115" depart="89.62" from="B0B1" to="B1A1"/>
<trip id="40162" depart="89.74" from="B2B1" to="B1B0"/>
<trip id="30119" depart="89.84" from="B0B1" to="B1B2"/>
<trip id="10049" depart="90.77" from="A1B1" to="B1C1"/>
<trip id="10051" depart="90.78" from="A1B1" to="B1C1"/>
<trip id="30142" depart="92.23" from="B0B1" to="B1B2"/>
<trip id="40177" depart="92.25" from="B2B1" to="B1B0"/>
<trip id="30140" depart="92.37" from="B0B1" to="B1B2"/>
<trip id="40195" depart="92.77" from="B2B1" to="B1B0"/>
<trip id="20014" depart="92.80" from="C1B1" to="B1B0"/>
<trip id="30137" depart="92.81" from="B0B1" to="B1B2"/>
<trip id="30138" depart="93.13" from="B0B1" to="B1A1"/>
<trip id="40194" depart="93.30" from="B2B1" to="B1A1"/>
<trip id="40188" depart="93.37" from="B2B1" to="B1A1"/>
<trip id="10054" depart="93.39" from="A1B1" to="B1C1"/>
<trip id="20013" depart="93.62" from="C1B1" to="B1B0"/>
<trip id="10056" depart="93.85" from="A1B1" to="B1C1"/>
<trip id="30141" depart="94.19" from="B0B1" to="B1C1"/>
<trip id="40180" depart="94.73" from="B2B1" to="B1C1"/>
<trip id="30144" depart="94.84" from="B0B1" to="B1B2"/>
<trip id="40182" depart="95.48" from="B2B1" to="B1B0"/>
<trip id="30145" depart="95.49" from="B0B1" to="B1B2"/>
<trip id="30134" depart="96.34" from="B0B1" to="B1B2"/>
<trip id="40184" depart="96.37" from="B2B1" to="B1A1"/>
<trip id="40187" depart="96.41" from="B2B1" to="B1B0"/>
<trip id="30139" depart="96.42" from="B0B1" to="B1A1"/>
<trip id="40191" depart="96.52" from="B2B1" to="B1C1"/>
<trip id="40190" depart="96.53" from="B2B1" to="B1B0"/>
<trip id="40183" depart="96.83" from="B2B1" to="B1B0"/>
<trip id="30143" depart="97.52" from="B0B1" to="B1A1"/>
<trip id="30136" depart="97.83" from="B0B1" to="B1A1"/>
<trip id="40186" depart="97.94" from="B2B1" to="B1B0"/>
<trip id="40176" depart="97.95" from="B2B1" to="B1B0"/>
<trip id="10050" depart="99.30" from="A1B1" to="B1B2"/>
<trip id="40192" depart="99.45" from="B2B1" to="B1A1"/>
<trip id="30135" depart="99.84" from="B0B1" to="B1C1"/>
<trip id="10055" depart="100.27" from="A1B1" to="B1B2"/>
<trip id="10052" depart="100.45" from="A1B1" to="B1C1"/>
<trip id="40181" depart="100.46" from="B2B1" to="B1B0"/>
<trip id="30146" depart="100.52" from="B0B1" to="B1B2"/>
<trip id="40178" depart="100.80" from="B2B1" to="B1B0"/>
<trip id="40189" depart="101.50" from="B2B1" to="B1B0"/>
<trip id="30131" depart="102.35" from="B0B1" to="B1A1"/>
<trip id="40185" depart="103.41" from="B2B1" to="B1B0"/>
<trip id="30132" depart="103.94" from="B0B1" to="B1B2"/>
<trip id="40193" depart="104.38" from="B2B1" to="B1B0"/>
<trip id="30133" depart="104.56" from="B0B1" to="B1B2"/>
<trip id="10057" depart="104.71" from="A1B1" to="B1C1"/>
<trip id="40179" depart="104.76" from="B2B1" to="B1A1"/>
<trip id="10053" depart="104.77" from="A1B1" to="B1C1"/>
<trip id="30153" depart="105.15" from="B0B1" to="B1B2"/>
<trip id="20015" depart="105.49" from="C1B1" to="B1B2"/>
<trip id="40196" depart="105.51" from="B2B1" to="B1C1"/>
<trip id="30130" depart="105.54" from="B0B1" to="B1C1"/>
<trip id="10063" depart="105.67" from="A1B1" to="B1C1"/>
<trip id="10059" depart="106.33" from="A1B1" to="B1C1"/>
<trip id="30148" depart="106.41" from="B0B1" to="B1B2"/>
<trip id="30162" depart="106.71" from="B0B1" to="B1A1"/>
<trip id="40197" depart="106.74" from="B2B1" to="B1B0"/>
<trip id="20016" depart="107.69" from="C1B1" to="B1B0"/>
<trip id="40208" depart="107.77" from="B2B1" to="B1B0"/>
<trip id="10061" depart="108.89" from="A1B1" to="B1C1"/>
<trip id="20017" depart="109.66" from="C1B1" to="B1A1"/>
<trip id="20018" depart="109.81" from="C1B1" to="B1A1"/>
<trip id="30159" depart="109.82" from="B0B1" to="B1B2"/>
<trip id="40205" depart="110.30" from="B2B1" to="B1B0"/>
<trip id="30156" depart="110.63" from="B0B1" to="B1B2"/>
<trip id="10058" depart="111.36" from="A1B1" to="B1C1"/>
<trip id="30155" depart="111.37" from="B0B1" to="B1A1"/>
<trip id="40199" depart="111.59" from="B2B1" to="B1B0"/>
<trip id="30164" depart="111.69" from="B0B1" to="B1A1"/>
<trip id="40202" depart="112.12" from="B2B1" to="B1B0"/>
<trip id="40206" depart="112.12" from="B2B1" to="B1B0"/>
<trip id="30157" depart="112.72" from="B0B1" to="B1B2"/>
<trip id="40198" depart="112.80" from="B2B1" to="B1B0"/>
<trip id="30151" depart="112.88" from="B0B1" to="B1A1"/>
<trip id="40212" depart="113.92" from="B2B1" to="B1C1"/>
<trip id="40215" depart="114.20" from="B2B1" to="B1B0"/>
<trip id="30163" depart="114.38" from="B0B1" to="B1C1"/>
<trip id="30149" depart="115.27" from="B0B1" to="B1A1"/>
<trip id="40214" depart="115.28" from="B2B1" to="B1B0"/>
<trip id="30150" depart="115.38" from="B0B1" to="B1C1"/>
<trip id="30161" depart="115.41" from="B0B1" to="B1B2"/>
<trip id="30147" depart="115.49" from="B0B1" to="B1C1"/>
<trip id="40201" depart="116.90" from="B2B1" to="B1B0"/>
<trip id="40210" depart="117.13" from="B2B1" to="B1B0"/>
<trip id="30152" depart="117.27" from="B0B1" to="B1B2"/>
<trip id="10064" depart="117.32" from="A1B1" to="B1B0"/>
<trip id="40204" depart="117.32" from="B2B1" to="B1A1"/>
<trip id="40213" depart="117.43" from="B2B1" to="B1B0"/>
<trip id="40207" depart="118.61" from="B2B1" to="B1A1"/>
<trip id="30154" depart="118.69" from="B0B1" to="B1A1"/>
<trip id="40211" depart="119.35" from="B2B1" to="B1B0"/>
<trip id="10060" depart="119.55" from="A1B1" to="B1C1"/>
<trip id="30158" depart="119.77" from="B0B1" to="B1B2"/>
<trip id="30160" depart="119.97" from="B0B1" to="B1B2"/>
<trip id="40222" depart="120.27" from="B2B1" to="B1B0"/>
<trip id="30169" depart="120.30" from="B0B1" to="B1A1"/>
<trip id="40203" depart="120.41" from="B2B1" to="B1B0"/>
<trip id="10062" depart="120.44" from="A1B1" to="B1B2"/>
<trip id="40209" depart="120.44" from="B2B1" to="B1B0"/>
<trip id="10068" depart="120.54" from="A1B1" to="B1C1"/>
<trip id="40216" depart="120.78" from="B2B1" to="B1B0"/>
<trip id="40200" depart="120.90" from="B2B1" to="B1A1"/>
<trip id="40228" depart="120.99" from="B2B1" to="B1C1"/>
<trip id="40224" depart="121.35" from="B2B1" to="B1C1"/>
<trip id="40220" depart="121.80" from="B2B1" to="B1B0"/>
<trip id="30173" depart="122.27" from="B0B1" to="B1B2"/>
<trip id="10066" depart="123.48" from="A1B1" to="B1B0"/>
<trip id="20019" depart="124.14" from="C1B1" to="B1A1"/>
<trip id="30165" depart="124.39" from="B0B1" to="B1B2"/>
<trip id="10069" depart="124.65" from="A1B1" to="B1C1"/>
<trip id="30170" depart="124.79" from="B0B1" to="B1B2"/>
<trip id="30171" depart="125.14" from="B0B1" to="B1B2"/>
<trip id="30174" depart="125.30" from="B0B1" to="B1C1"/>
<trip id="40227" depart="125.95" from="B2B1" to="B1B0"/>
<trip id="30176" depart="126.13" from="B0B1" to="B1A1"/>
<trip id="30167" depart="126.24" from="B0B1" to="B1B2"/>
<trip id="30172" depart="127.13" from="B0B1" to="B1B2"/>
<trip id="20020" depart="127.94" from="C1B1" to="B1A1"/>
<trip id="40217" depart="128.32" from="B2B1" to="B1B0"/>
<trip id="40219" depart="129.18" from="B2B1" to="B1C1"/>
<trip id="40230" depart="129.35" from="B2B1" to="B1B0"/>
<trip id="10070" depart="129.83" from="A1B1" to="B1B2"/>
<trip id="30175" depart="130.59" from="B0B1" to="B1B2"/>
<trip id="40225" depart="130.82" from="B2B1" to="B1A1"/>
<trip id="30168" depart="132.31" from="B0B1" to="B1B2"/>
<trip id="30177" depart="132.70" from="B0B1" to="B1B2"/>
<trip id="40223" depart="133.13" from="B2B1" to="B1A1"/>
<trip id="40226" depart="133.14" from="B2B1" to="B1C1"/>
<trip id="10065" depart="133.17" from="A1B1" to="B1C1"/>
<trip id="40218" depart="133.98" from="B2B1" to="B1B0"/>
<trip id="40221" depart="134.39" from="B2B1" to="B1A1"/>
<trip id="30166" depart="134.51" from="B0B1" to="B1B2"/>
<trip id="30178" depart="134.89" from="B0B1" to="B1A1"/>
<trip id="40231" depart="135.11" from="B2B1" to="B1B0"/>
<trip id="40245" depart="135.24" from="B2B1" to="B1B0"/>
<trip id="10067" depart="135.57" from="A1B1" to="B1B2"/>
<trip id="40229" depart="135.62" from="B2B1" to="B1B0"/>
<trip id="10072" depart="137.19" from="A1B1" to="B1B0"/>
<trip id="40239" depart="137.31" from="B2B1" to="B1B0"/>
<trip id="10074" depart="137.42" from="A1B1" to="B1C1"/>
<trip id="30189" depart="138.11" from="B0B1" to="B1A1"/>
<trip id="40240" depart="138.22" from="B2B1" to="B1B0"/>
<trip id="30191" depart="138.51" from="B0B1" to="B1B2"/>
<trip id="40244" depart="138.67" from="B2B1" to="B1B0"/>
<trip id="30185" depart="139.24" from="B0B1" to="B1B2"/>
<trip id="40246" depart="139.49" from="B2B1" to="B1C1"/>
<trip id="30179" depart="140.80" from="B0B1" to="B1A1"/>
<trip id="10075" depart="141.28" from="A1B1" to="B1C1"/>
<trip id="30187" depart="141.28" from="B0B1" to="B1B2"/>
<trip id="40236" depart="141.40" from="B2B1" to="B1B0"/>
<trip id="10071" depart="141.92" from="A1B1" to="B1C1"/>
<trip id="30188" depart="142.32" from="B0B1" to="B1C1"/>
<trip id="30182" depart="142.86" from="B0B1" to="B1B2"/>
<trip id="40248" depart="143.40" from="B2B1" to="B1B0"/>
<trip id="40241" depart="143.59" from="B2B1" to="B1C1"/>
<trip id="30190" depart="144.24" from="B0B1" to="B1B2"/>
<trip id="20021" depart="144.89" from="C1B1" to="B1A1"/>
<trip id="40243" depart="145.21" from="B2B1" to="B1A1"/>
<trip id="30181" depart="145.57" from="B0B1" to="B1B2"/>
<trip id="30180" depart="145.71" from="B0B1" to="B1B2"/>
<trip id="40238" depart="145.77" from="B2B1" to="B1B0"/>
<trip id="30186" depart="145.97" from="B0B1" to="B1A1"/>
<trip id="40237" depart="146.50" from="B2B1" to="B1B0"/>
<trip id="30192" depart="146.85" from="B0B1" to="B1A1"/>
<trip id="40233" depart="146.87" from="B2B1" to="B1A1"/>
<trip id="30184" depart="146.97" from="B0B1" to="B1C1"/>