<?xml version="1.0" encoding="UTF-8"?>

<!-- generated on 2024-12-02 11:24:45 by Eclipse SUMO netconvert Version 1.19.0
<configuration xmlns:xsi="http://www.w3.org/2001/XMLSchema-instance" xsi:noNamespaceSchemaLocation="http://sumo.dlr.de/xsd/netconvertConfiguration.xsd">

    <input>
        <sumo-net-file value="inter.net.xml"/>
    </input>

    <output>
        <plain-output-prefix value="righthand"/>
    </output>

    <processing>
        <geometry.min-radius.fix.railways value="false"/>
        <geometry.max-grade.fix value="false"/>
        <offset.disable-normalization value="true"/>
        <lefthand value="1"/>
    </processing>

    <junctions>
        <no-turnarounds value="true"/>
        <junctions.corner-detail value="5"/>
        <junctions.limit-turn-speed value="5.50"/>
        <rectangular-lane-cut value="0"/>
    </junctions>

    <pedestrian>
        <walkingareas value="0"/>
    </pedestrian>

</configuration>
-->

<edges version="1.16" xmlns:xsi="http://www.w3.org/2001/XMLSchema-instance" xsi:noNamespaceSchemaLocation="http://sumo.dlr.de/xsd/edges_file.xsd">
    <edge id="A1B1" from="A1" to="B1" priority="-1" numLanes="2" speed="13.89" length="200.00"/>
    <edge id="B0B1" from="B0" to="B1" priority="-1" numLanes="3" speed="13.89" length="200.00"/>
    <edge id="B1A1" from="B1" to="A1" priority="-1" numLanes="2" speed="13.89" length="200.00"/>
    <edge id="B1B0" from="B1" to="B0" priority="-1" numLanes="3" speed="13.89" length="200.00"/>
    <edge id="B1B2" from="B1" to="B2" priority="-1" numLanes="3" speed="13.89" length="200.00"/>
    <edge id="B1C1" from="B1" to="C1" priority="-1" numLanes="2" speed="13.89" length="200.00"/>
    <edge id="B2B1" from="B2" to="B1" priority="-1" numLanes="3" speed="13.89" length="200.00"/>
    <edge id="C1B1" from="C1" to="B1" priority="-1" numLanes="2" speed="13.89" length="200.00"/>
</edges>
